test/test_files/validation_tests/case3012wp_res.m
function mpc = case3012wp_res
%CASE3012WP_RES

%% MATPOWER Case Format : Version 2
mpc.version = '2';

%%-----  Power Flow Data  -----%%
%% system MVA base
mpc.baseMVA = 100;

%% bus data
%	bus_i	type	Pd	Qd	Gs	Bs	area	Vm	Va	baseKV	zone	Vmax	Vmin
mpc.bus = [
	1	1	0	0	0	0	1	1.10679219	-0.345441905	220	1	1.11	0.95;
	2	1	0	0	0	0	1	1.10786074	0.772941714	220	1	1.11	0.95;
	3	1	0	0	0	0	1	1.06594466	-31.8951534	220	1	1.11	0.95;
	4	1	0	0	0	0	1	1.06588363	-31.9041778	220	1	1.11	0.95;
	5	1	0	0	0	0	1	1.07700635	-34.1468477	220	1	1.11	0.95;
	6	1	0	0	0	0	1	1.07515412	-6.59812268	220	1	1.11	0.95;
	7	1	0	0	0	0	1	1.07512513	-6.59822354	220	1	1.11	0.95;
	8	1	0	0	0	0	1	1.09029671	-19.3763371	220	1	1.11	0.95;
	9	1	0	0	0	0	1	1.09054406	-19.3598836	220	1	1.11	0.95;
	10	1	0	0	0	0	1	1.10993794	-22.8101313	220	1	1.11	0.95;
	11	1	0	0	0	0	1	1.02524493	-14.1630483	400	1	1.05	0.95;
	12	1	0	0	0	0	1	1.02532923	-14.154264	400	1	1.05	0.95;
	13	1	0	0	0	0	1	1.01153019	-18.6051419	400	1	1.05	0.95;
	14	1	0	0	0	0	1	1.04274016	-19.1865467	220	1	1.11	0.95;
	15	1	0	0	0	0	1	1.04294151	-19.1832461	220	1	1.11	0.95;
	16	1	0	0	0	0	1	1.04295835	-19.1734333	220	1	1.11	0.95;
	17	1	0	0	0	0	1	1.03123683	-23.6448836	220	1	1.11	0.95;
	18	1	0	0	0	0	1	1.03087494	-23.2682595	220	1	1.11	0.95;
	19	1	0	0	0	0	1	1.02640679	-12.4702013	400	1	1.05	0.95;
	20	1	0	0	0	0	1	1.02645503	-12.460101	400	1	1.05	0.95;
	21	1	0	0	0	0	1	1.02192181	-22.3124711	400	1	1.05	0.95;
	22	1	0	0	0	0	1	1.01547657	-18.337795	400	1	1.05	0.95;
	23	1	0	0	0	0	1	1.01547657	-18.337795	400	1	1.05	0.95;
	24	2	10.05	20.1	0	0	1	1.08673	-26.2779122	220	1	1.11	0.95;
	25	2	10.05	20.1	0	0	1	1.08668	-26.277726	220	1	1.11	0.95;
	26	1	0	0	0	0	1	1.0846715	-5.5966093	220	1	1.11	0.95;
	27	1	0	0	0	0	1	1.08479097	-5.60958797	220	1	1.11	0.95;
	28	1	0	0	0	0	1	1.03988996	-21.2543289	220	1	1.11	0.95;
	29	1	0	0	0	0	1	1.03984007	-21.2520767	220	1	1.11	0.95;
	30	1	0	0	0	0	1	1.04228687	-18.6953098	220	1	1.11	0.95;
	31	1	0	0	0	0	1	1.04222627	-18.7081434	220	1	1.11	0.95;
	32	1	0	0	0	0	1	1.0844035	-3.24893748	220	1	1.11	0.95;
	33	1	0	0	0	0	1	1.08430354	-3.27269355	220	1	1.11	0.95;
	34	1	0	0	0	0	1	1.01700073	-16.3099257	400	1	1.05	0.95;
	35	1	0	0	0	0	1	1.01696761	-16.3150274	400	1	1.05	0.95;
	36	1	0	0	0	0	1	1.00670258	-19.5430154	400	1	1.05	0.95;
	37	3	48.68	86.21	0	0	1	1.11	0	220	1	1.11	0.95;
	38	2	54.54	89.93	0	0	1	1.11	1.0662481	220	1	1.11	0.95;
	39	2	20.1	40.19	0	0	1	1.11	1.0589989	220	1	1.11	0.95;
	40	2	60.29	120.57	0	0	1	1.04749	-0.512977092	400	1	1.05	0.95;
	41	2	60.29	120.57	0	0	1	1.04746	-0.506832935	400	1	1.05	0.95;
	42	1	0	0	0	0	1	1.03172833	-20.500823	220	1	1.11	0.95;
	43	1	0	0	0	0	1	1.03162839	-20.5045077	220	1	1.11	0.95;
	44	1	0	0	0	0	1	1.04994085	-2.19548655	400	1	1.05	0.95;
	45	1	0	0	0	0	1	1.04992576	-2.19904709	400	1	1.05	0.95;
	46	1	0	0	0	0	1	1.03926817	-19.5402651	220	1	1.11	0.95;
	47	1	0	0	0	0	1	1.05991502	-9.00957031	220	1	1.11	0.95;
	48	1	0	0	0	0	1	1.05993238	-9.02759988	220	1	1.11	0.95;
	49	1	0	0	0	0	1	1.09288885	-13.1519232	220	2	1.11	0.95;
	50	1	0	0	0	0	1	1.0911408	-12.7395585	220	2	1.11	0.95;
	51	1	0	0	0	0	1	1.10363553	-11.0991443	220	2	1.11	0.95;
	52	1	0	0	0	0	1	1.10360933	-11.1035442	220	2	1.11	0.95;
	53	1	0	0	0	0	1	1.07222891	-15.1501676	220	2	1.11	0.95;
	54	1	3.23	1	0	0	1	1.09938805	-9.80059775	220	2	1.11	0.95;
	55	1	0	0	0	0	1	1.09945936	-9.80001272	220	2	1.11	0.95;
	56	1	0	0	0	0	1	1.03595656	-9.9752748	400	2	1.05	0.95;
	57	2	26.12	60.29	0	0	1	1.10173	-11.2351055	220	2	1.11	0.95;
	58	2	54.26	120.57	0	0	1	1.10171	-11.2354941	220	2	1.11	0.95;
	59	2	13.06	30.14	0	0	1	1.10172	-11.2365078	220	2	1.11	0.95;
	60	2	26.12	50.24	0	0	1	1.05	-9.36799525	400	2	1.05	0.95;
	61	2	26.12	50.24	0	0	1	1.05	-9.36122213	400	2	1.05	0.95;
	62	1	0	0	0	0	1	1.09398465	-10.5387048	220	2	1.11	0.95;
	63	1	0	0	0	0	1	1.04484249	-13.9006711	400	2	1.05	0.95;
	64	1	0	0	0	0	1	1.04484044	-13.9018431	400	2	1.05	0.95;
	65	1	0	0	0	0	1	1.04779816	-10.9188091	400	2	1.05	0.95;
	66	1	0	0	0	0	1	1.07835213	-13.4246025	220	2	1.11	0.95;
	67	1	0	0	0	0	1	1.07834392	-13.4194947	220	2	1.11	0.95;
	68	1	0	0	0	0	1	1.04570361	-10.5856287	400	2	1.05	0.95;
	69	1	0	0	0	0	1	1.04568959	-10.5876626	400	2	1.05	0.95;
	70	2	13.06	30.14	0	0	1	1.10839	-9.83720642	220	2	1.11	0.95;
	71	2	13.06	30.14	0	0	1	1.10837	-9.83885888	220	2	1.11	0.95;
	72	2	13.06	30.14	0	0	1	1.04326	-10.2040444	400	2	1.05	0.95;
	73	2	26.12	60.29	0	0	1	1.04328	-10.2055066	400	2	1.05	0.95;
	74	2	149.71	60.29	0	0	1	1.09864	-12.191133	220	2	1.11	0.95;
	75	1	29.14	10.05	0	0	1	1.09862062	-12.1928204	220	2	1.11	0.95;
	76	1	0	0	0	0	1	1.09645238	-10.7160143	220	2	1.11	0.95;
	77	1	0	0	0	0	1	1.09645319	-10.7122265	220	2	1.11	0.95;
	78	1	0	0	0	0	1	1.09743101	-12.139536	220	2	1.11	0.95;
	79	1	0	0	0	0	1	1.097445	-12.143401	220	2	1.11	0.95;
	80	1	0	0	0	0	1	1.04995173	-11.5266931	400	2	1.05	0.95;
	81	1	0	0	0	0	1	1.04991792	-11.5383077	400	2	1.05	0.95;
	82	1	0	0	0	0	1	1.09998633	-12.2199472	220	2	1.11	0.95;
	83	1	0	0	0	0	1	1.10064473	-12.0920425	220	2	1.11	0.95;
	84	1	0	0	0	0	1	1.07983685	-12.2452049	220	2	1.11	0.95;
	85	1	0	0	0	0	1	1.09322366	-4.33120411	220	3	1.11	0.95;
	86	1	9.35	0	0	0	1	1.09454276	-9.15272443	220	3	1.11	0.95;
	87	1	8.18	0	0	0	1	1.09455976	-9.15297136	220	3	1.11	0.95;
	88	1	0	0	0	0	1	1.09957879	-2.95649149	220	3	1.11	0.95;
	89	1	0	0	0	0	1	1.0997012	-2.94365881	220	3	1.11	0.95;
	90	1	0	0	0	0	1	1.10941472	-2.54204481	220	3	1.11	0.95;
	91	1	0	0	0	0	1	1.10943432	-2.54431923	220	3	1.11	0.95;
	92	1	0	0	0	0	1	1.07462876	-4.33421	220	3	1.11	0.95;
	93	1	0	0	0	0	1	1.07438096	-4.34098643	220	3	1.11	0.95;
	94	2	28.13	70.33	0	0	1	1.10879	-2.11119931	220	3	1.11	0.95;
	95	2	42.2	103.49	0	0	1	1.11	-1.63692994	220	3	1.11	0.95;
	96	1	7.72	-24.99	0	0	1	1.09586338	-3.09541261	220	3	1.11	0.95;
	97	1	0	0	0	0	1	1.09584707	-3.09641703	220	3	1.11	0.95;
	98	2	32.15	142.68	0	0	1	1.05	-4.70517239	400	3	1.05	0.95;
	99	1	0	0	0	0	1	1.04990601	-4.73253608	400	3	1.05	0.95;
	100	1	0	0	0	0	1	1.05990942	-6.3082509	220	3	1.11	0.95;
	101	1	0	0	0	0	1	1.10845996	-2.04734996	220	3	1.11	0.95;
	102	1	0	0	0	0	1	1.10845773	-2.04460266	220	3	1.11	0.95;
	103	1	45.11	7.94	0	0	1	1.09614386	-4.10514441	220	3	1.11	0.95;
	104	1	0	0	0	0	1	1.09608546	-4.10989887	220	3	1.11	0.95;
	105	1	0	0	0	0	1	1.1042148	-1.89455031	220	3	1.11	0.95;
	106	1	0	0	0	0	1	1.10414946	-1.89676745	220	3	1.11	0.95;
	107	1	0	0	0	0	1	1.10030849	-3.6793224	220	3	1.11	0.95;
	108	1	0	0	0	0	1	1.10029469	-3.68620721	220	3	1.11	0.95;
	109	1	0	0	0	0	1	1.04332113	-2.2686398	400	3	1.05	0.95;
	110	1	0	0	0	0	1	1.04331986	-2.27024266	400	3	1.05	0.95;
	111	1	0	0	0	0	1	1.10684333	-1.74228277	220	3	1.11	0.95;
	112	1	0	0	0	0	1	1.1068559	-1.74096648	220	3	1.11	0.95;
	113	1	0	0	0	0	1	1.08104044	-3.70777372	220	3	1.11	0.95;
	114	1	0	0	0	0	1	1.08094663	-3.72081994	220	3	1.11	0.95;
	115	2	29.36	18.51	0	0	1	1.10086	-3.13919024	220	3	1.11	0.95;
	116	1	0	0	0	0	1	1.10082828	-3.15132818	220	3	1.11	0.95;
	117	1	0	0	0	0	1	1.09459948	-9.13371727	220	3	1.11	0.95;
	118	1	0	0	0	0	1	1.09459099	-9.13073985	220	3	1.11	0.95;
	119	1	0	0	0	0	1	1.06067196	-4.67087947	220	3	1.11	0.95;
	120	1	0	0	0	0	1	1.06064239	-4.67227541	220	3	1.11	0.95;
	121	2	0	0	0	0	1	1.1099803	-1.76111296	220	3	1.11	0.95;
	122	2	10.05	44.21	0	0	1	1.11	-1.75919031	220	3	1.11	0.95;
	123	2	7.03	18.09	0	0	1	1.10998	-1.81523346	220	3	1.11	0.95;
	124	2	8.04	21.1	0	0	1	1.11	-1.80382689	220	3	1.11	0.95;
	125	1	0	0	0	0	1	1.09605754	-4.51825005	220	3	1.11	0.95;
	126	1	71.54	7.94	0	0	1	1.09609536	-4.52661121	220	3	1.11	0.95;
	127	1	0	0	0	0	1	1.0790372	-4.94770476	220	3	1.11	0.95;
	128	1	0	0	0	0	1	1.08912235	-2.64793904	220	3	1.11	0.95;
	129	1	0	0	0	0	1	1.08916687	-2.65005659	220	3	1.11	0.95;
	130	1	0	0	0	0	1	1.09443232	-3.16189611	220	3	1.11	0.95;
	131	1	0	0	0	0	1	1.09453224	-3.15363522	220	3	1.11	0.95;
	132	1	0	0	0	0	1	1.04138569	-5.55244425	400	3	1.05	0.95;
	133	1	0	0	0	0	1	1.04138569	-5.55244425	400	3	1.05	0.95;
	134	2	0	0	0	0	1	1.10759155	-2.68919822	220	3	1.11	0.95;
	135	2	9.04	20.1	0	0	1	1.10756	-2.69168365	220	3	1.11	0.95;
	136	2	6.03	15.07	0	0	1	1.09273	-4.2167618	220	3	1.11	0.95;
	137	1	0	0	0	0	1	1.09274129	-4.22830117	220	3	1.11	0.95;
	138	1	0	0	0	0	1	1.04766795	-11.3591358	400	3	1.05	0.95;
	139	1	0	0	0	0	1	1.04769514	-11.361116	400	3	1.05	0.95;
	140	1	0	0	0	0	1	1.0498747	-6.08764621	400	3	1.05	0.95;
	141	1	0	0	0	0	1	1.04987297	-6.08578175	400	3	1.05	0.95;
	142	1	0	0	0	0	1	1.07645915	-5.20955996	220	3	1.11	0.95;
	143	1	0	0	0	0	1	1.07651704	-5.2070932	220	3	1.11	0.95;
	144	2	18.34	15.86	0	0	1	1.10995	-1.36278372	220	3	1.11	0.95;
	145	2	41.01	43.07	0	0	1	1.11	-1.33958434	220	3	1.11	0.95;
	146	2	28.13	66.31	0	0	1	1.03968	-4.60039815	400	3	1.05	0.95;
	147	1	0	0	0	0	1	1.03973088	-4.59974051	400	3	1.05	0.95;
	148	1	0	0	0	0	1	1.09482829	-4.20206255	220	3	1.11	0.95;
	149	1	0	0	0	0	1	1.09490363	-4.19521228	220	3	1.11	0.95;
	150	1	0	0	0	0	1	1.10973932	-1.82027661	220	3	1.11	0.95;
	151	1	0	0	0	0	1	1.09827818	-3.81911412	220	3	1.11	0.95;
	152	2	0	0	0	0	1	1.07466075	-4.33444232	220	3	1.11	0.95;
	153	2	0	0	0	0	1	1.07441284	-4.34121728	220	3	1.11	0.95;
	154	2	7.84	20.1	0	0	1	1.0886	-13.1248363	220	4	1.11	0.95;
	155	2	8.04	20.1	0	0	1	1.0886	-13.1369642	220	4	1.11	0.95;
	156	1	0	0	0	0	1	1.06347489	-14.8056384	220	4	1.11	0.95;
	157	1	0	0	0	0	1	1.06343922	-14.8070823	220	4	1.11	0.95;
	158	1	0	0	0	0	1	1.05485272	-16.5551619	220	4	1.11	0.95;
	159	1	0	0	0	0	1	1.0808757	-13.0973105	220	4	1.11	0.95;
	160	1	0	0	0	0	1	1.08079196	-13.1066696	220	4	1.11	0.95;
	161	1	0	0	0	0	1	1.02222084	-12.6715322	400	4	1.05	0.95;
	162	1	0	0	0	0	1	1.02218688	-12.6739865	400	4	1.05	0.95;
	163	1	0	0	0	0	1	1.0259174	-28.7482998	220	4	1.11	0.95;
	164	1	0	0	0	0	1	1.07704005	-35.7752276	220	4	1.11	0.95;
	165	1	0	0	0	0	1	1.07704005	-35.7752276	220	4	1.11	0.95;
	166	1	0	0	0	0	1	1.07161268	-31.2783982	220	4	1.11	0.95;
	167	1	0	0	0	0	1	1.07161268	-31.2783982	220	4	1.11	0.95;
	168	1	0	0	0	0	1	1.05423394	-16.7915684	220	4	1.11	0.95;
	169	2	0	0	0	0	1	1.08097278	-18.443002	220	4	1.11	0.95;
	170	2	0	0	0	0	1	1.08094469	-18.4578764	220	4	1.11	0.95;
	171	1	0	0	0	0	1	1.11000406	-15.2540333	220	4	1.11	0.95;
	172	2	12.06	30.14	0	0	1	1.10415	-33.6568507	220	4	1.11	0.95;
	173	2	9.39	2.43	0	0	1	1.1040913	-33.6571941	220	4	1.11	0.95;
	174	2	12.06	30.14	0	0	1	1.03614	-30.8202251	400	4	1.05	0.95;
	175	2	24.11	60.29	0	0	1	1.03615	-30.8162951	400	4	1.05	0.95;
	176	1	0	0	0	0	1	0.994618286	-27.6767411	220	4	1.11	0.95;
	177	1	0	0	0	0	1	0.994734659	-27.6852252	220	4	1.11	0.95;
	178	1	0	0	0	0	1	1.04824617	-23.0462107	220	4	1.11	0.95;
	179	1	0	0	0	0	1	1.04825586	-23.0504186	220	4	1.11	0.95;
	180	2	26.12	64.3	0	0	1	1.11	-9.33126816	220	4	1.11	0.95;
	181	2	26.12	64.3	0	0	1	1.11	-9.33926913	220	4	1.11	0.95;
	182	2	26.12	64.51	0	0	1	1.11	-9.31666415	220	4	1.11	0.95;
	183	2	26.12	64.51	0	0	1	1.0494	-8.67673686	400	4	1.05	0.95;
	184	1	0	0	0	0	1	1.04936755	-8.67819467	400	4	1.05	0.95;
	185	1	0	0	0	0	1	1.08069969	-35.8099285	220	4	1.11	0.95;
	186	1	0	0	0	0	1	1.08069969	-35.8099285	220	4	1.11	0.95;
	187	1	0	0	0	0	1	1.00789619	-13.7114376	400	4	1.05	0.95;
	188	1	0	0	0	0	1	0.978818563	-19.541219	400	4	1.05	0.95;
	189	1	0	0	0	0	1	1.02033633	-11.7233252	400	4	1.05	0.95;
	190	1	0	0	0	0	1	1.0203499	-11.7150952	400	4	1.05	0.95;
	191	2	12.06	30.14	0	0	1	1.08298	-18.6003886	220	4	1.11	0.95;
	192	2	14.66	30.65	0	0	1	1.08268	-18.6424062	220	4	1.11	0.95;
	193	2	38.18	64.3	0	0	1	1.03244	-12.015699	400	4	1.05	0.95;
	194	1	0	0	0	0	1	1.0140039	-35.3650614	220	4	1.11	0.95;
	195	1	0	0	0	0	1	1.01405425	-35.370091	220	4	1.11	0.95;
	196	1	0	0	0	0	1	1.07646617	-35.8599668	220	4	1.11	0.95;
	197	1	0	0	0	0	1	1.07647174	-35.8611017	220	4	1.11	0.95;
	198	1	0	0	0	0	1	1.02035899	-29.9311594	220	4	1.11	0.95;
	199	1	0	0	0	0	1	1.02033583	-29.9228442	220	4	1.11	0.95;
	200	1	0	0	0	0	1	0.980186156	-31.6131302	400	4	1.05	0.95;
...
];

%% generator data
%	bus	Pg	Qg	Qmax	Qmin	Vg	mBase	status	Pmax	Pmin	Pc1	Pc2	Qc1min	Qc1max	Qc2min	Qc2max	ramp_agc	ramp_10	ramp_30	ramp_q	apf
mpc.gen = [
	24	110	84.0523488	140	-49	1.08673	235.3	1	221	110	0	0	0	0	0	0	0	0	0	0	0;
	25	135	-19.3310068	124	-22	1.08668	235.3	1	200	135	0	0	0	0	0	0	0	0	0	0	0;
	37	500.033595	73.5184123	190	-19	1.11	426	1	370	240	0	0	0	0	0	0	0	0	0	0	0;
	37	370	73.5184123	190	-19	1.11	426	1	370	240	0	0	0	0	0	0	0	0	0	0	0;
	38	370	17.3926989	190	-19	1.11	426	1	370	240	0	0	0	0	0	0	0	0	0	0	0;
	38	370	17.3926989	190	-19	1.11	426	1	370	240	0	0	0	0	0	0	0	0	0	0	0;
	39	370	97.9021826	190	-19	1.11	426	1	370	240	0	0	0	0	0	0	0	0	0	0	0;
	40	370	67.6750191	190	-19	1.04749	426	1	370	240	0	0	0	0	0	0	0	0	0	0	0;
	40	370	67.6750191	190	-19	1.04749	426	1	370	240	0	0	0	0	0	0	0	0	0	0	0;
	40	370	67.6750191	190	-19	1.04749	426	1	370	240	0	0	0	0	0	0	0	0	0	0	0;
	41	370	-13.8756163	190	-19	1.04746	426	1	370	240	0	0	0	0	0	0	0	0	0	0	0;
	41	370	-13.8756163	190	-19	1.04746	426	1	370	240	0	0	0	0	0	0	0	0	0	0	0;
	41	370	-13.8756163	190	-19	1.04746	426	1	370	240	0	0	0	0	0	0	0	0	0	0	0;
	57	111.38	41.3510233	152	-33	1.10173	235	1	215	110	0	0	0	0	0	0	0	0	0	0	0;
	57	126.35	41.3510233	152	-33	1.10173	235	1	220	125	0	0	0	0	0	0	0	0	0	0	0;
	58	164.41	86.3313708	149	-33	1.10171	235	1	225	125	0	0	0	0	0	0	0	0	0	0	0;
	58	0	0	149	-33	1	235	0	225	120	0	0	0	0	0	0	0	0	0	0	0;
	58	153.88	86.3313708	149	-33	1.10171	235	1	225	110	0	0	0	0	0	0	0	0	0	0	0;
	59	110	32.2824463	149	-33	1.10172	235	1	225	110	0	0	0	0	0	0	0	0	0	0	0;
	60	535	180.350594	363	-47	1.05	588	1	535	255	0	0	0	0	0	0	0	0	0	0	0;
	61	560	37.4229174	348	-100	1.05	588	1	560	250	0	0	0	0	0	0	0	0	0	0	0;
	70	129	-6.69165652	105	-11	1.10839	235	1	225	129	0	0	0	0	0	0	0	0	0	0	0;
	71	129	56.8061116	105	-11	1.10837	235	1	225	129	0	0	0	0	0	0	0	0	0	0	0;
	71	0	0	99	-10	1	235	0	225	129	0	0	0	0	0	0	0	0	0	0	0;
	72	0	0	105	-11	1	235	0	225	129	0	0	0	0	0	0	0	0	0	0	0;
	72	129	5.68682653	105	-11	1.04326	235	1	225	129	0	0	0	0	0	0	0	0	0	0	0;
	73	129	-17.1742915	99	-10	1.04328	235	1	225	129	0	0	0	0	0	0	0	0	0	0	0;
	73	129	-18.6350259	105	-11	1.04328	235	1	225	129	0	0	0	0	0	0	0	0	0	0	0;
	74	112	60.6884295	60	0	1.09864	120	1	112	0	0	0	0	0	0	0	0	0	0	0	0;
	94	220	96.0211698	131	-6	1.10879	270.6	1	220	125	0	0	0	0	0	0	0	0	0	0	0;
	94	225	96.0211698	131	-6	1.10879	270.6	1	225	140	0	0	0	0	0	0	0	0	0	0	0;
	95	225	72.3584784	131	-6	1.11	270.6	1	225	130	0	0	0	0	0	0	0	0	0	0	0;
	95	225	72.3584784	131	-6	1.11	270.6	1	225	125	0	0	0	0	0	0	0	0	0	0	0;
	95	225	72.3584784	131	-6	1.11	270.6	1	225	130	0	0	0	0	0	0	0	0	0	0	0;
	98	383	45.5901503	213	-31	1.05	426	1	383	220	0	0	0	0	0	0	0	0	0	0	0;
	98	380	16.0841088	119	-31	1.05	435.3	1	380	220	0	0	0	0	0	0	0	0	0	0	0;
	115	12	0.140323266	0	0	1.10086	12	1	12	0	0	0	0	0	0	0	0	0	0	0	0;
	115	6	0.140323266	0	0	1.10086	6	1	6	0	0	0	0	0	0	0	0	0	0	0	0;
	121	0	0	120	-10	1	270.6	0	225	120	0	0	0	0	0	0	0	0	0	0	0;
	122	225	61.9177989	120	-10	1.11	270.6	1	225	120	0	0	0	0	0	0	0	0	0	0	0;
	123	120	68.4534362	73	-1	1.10998	150	1	120	70	0	0	0	0	0	0	0	0	0	0	0;
	124	120	14.7806952	73	-1	1.11	150	1	120	70	0	0	0	0	0	0	0	0	0	0	0;
	134	0	0	80	0	1	150	0	120	70	0	0	0	0	0	0	0	0	0	0	0;
	135	120	80.6360679	80	0	1.10756	150	1	120	70	0	0	0	0	0	0	0	0	0	0	0;
	136	80	31.7443441	31	0	1.09273	117.5	1	110	80	0	0	0	0	0	0	0	0	0	0	0;
	144	215	43.5000193	135	-35	1.10995	270.6	1	215	135	0	0	0	0	0	0	0	0	0	0	0;
	145	215	42.2869289	135	-35	1.11	270.6	1	215	135	0	0	0	0	0	0	0	0	0	0	0;
	145	225	44.5600738	140	-35	1.11	270.6	1	225	135	0	0	0	0	0	0	0	0	0	0	0;
	146	225	-35.051599	140	-36	1.03968	270.6	1	225	135	0	0	0	0	0	0	0	0	0	0	0;
	146	220	-35.0677649	137	-36	1.03968	270.6	1	220	135	0	0	0	0	0	0	0	0	0	0	0;
	152	0	0	72	-29	1	150	0	135	-135	0	0	0	0	0	0	0	0	0	0	0;
	152	0	0	72	-29	1	150	0	135	-135	0	0	0	0	0	0	0	0	0	0	0;
	153	0	0	72	-29	1	150	0	135	-135	0	0	0	0	0	0	0	0	0	0	0;
	153	0	0	72	-29	1	150	0	135	-135	0	0	0	0	0	0	0	0	0	0	0;
	154	120	87.7340366	85	-15	1.0886	150	1	120	94	0	0	0	0	0	0	0	0	0	0	0;
	155	120	89.4958386	85	-15	1.0886	150	1	120	94	0	0	0	0	0	0	0	0	0	0	0;
	155	0	0	85	-15	1	150	0	120	94	0	0	0	0	0	0	0	0	0	0	0;
	169	0	0	25	0	1	51.4	0	50	40	0	0	0	0	0	0	0	0	0	0	0;
	170	0	0	90	-15	1	150	0	120	80	0	0	0	0	0	0	0	0	0	0	0;
	170	0	0	25	0	1	51.4	0	50	45	0	0	0	0	0	0	0	0	0	0	0;
	172	100	119.406039	119	-31	1.10415	252.4	1	232	100	0	0	0	0	0	0	0	0	0	0	0;
	172	0	0	111	-21	1	237.5	0	205	135	0	0	0	0	0	0	0	0	0	0	0;
	173	0	0	111	-21	1	237.5	0	205	135	0	0	0	0	0	0	0	0	0	0	0;
	173	0	0	102	-15	1	252.4	0	222	90	0	0	0	0	0	0	0	0	0	0	0;
	174	90	-18.723864	102	-15	1.03614	252.4	1	222	90	0	0	0	0	0	0	0	0	0	0	0;
	175	90	64.3707147	102	-15	1.03615	252.4	1	222	90	0	0	0	0	0	0	0	0	0	0	0;
	175	100	59.8733642	93	-10	1.03615	252.4	1	232	100	0	0	0	0	0	0	0	0	0	0	0;
	180	261	99.0798555	127	-35	1.11	287.3	1	261	104	0	0	0	0	0	0	0	0	0	0	0;
	180	261	99.0798555	127	-35	1.11	287.3	1	261	104	0	0	0	0	0	0	0	0	0	0	0;
	181	206	103.926936	103	-17	1.11	238.4	1	206	120	0	0	0	0	0	0	0	0	0	0	0;
	181	261	128.251364	127	-35	1.11	287.3	1	261	104	0	0	0	0	0	0	0	0	0	0	0;
	182	235	10.69311	145	-38	1.11	263.9	1	235	94	0	0	0	0	0	0	0	0	0	0	0;
	182	235	10.69311	145	-38	1.11	263.9	1	235	94	0	0	0	0	0	0	0	0	0	0	0;
	183	206	103.394536	103	-17	1.0494	238.4	1	206	120	0	0	0	0	0	0	0	0	0	0	0;
	183	206	103.394536	103	-17	1.0494	238.4	1	206	120	0	0	0	0	0	0	0	0	0	0	0;
	191	200	107.661738	104	-23	1.08298	233.2	1	200	150	0	0	0	0	0	0	0	0	0	0	0;
	192	200	107.171586	104	-23	1.08268	233.2	1	200	150	0	0	0	0	0	0	0	0	0	0	0;
	192	0	0	104	-23	1	233.2	0	200	145	0	0	0	0	0	0	0	0	0	0	0;
	192	0	0	104	-23	1	233.2	0	200	145	0	0	0	0	0	0	0	0	0	0	0;
	193	464	294.268448	294	-259	1.03244	464	1	464	208	0	0	0	0	0	0	0	0	0	0	0;
	208	188	100.657961	100	0	1.06751	218.3	1	188	76	0	0	0	0	0	0	0	0	0	0	0;
	240	179	-60.5307997	105	-62	1.02222	209	1	179	-200	0	0	0	0	0	0	0	0	0	0	0;
	240	179	-60.5307997	105	-62	1.02222	209	1	179	-200	0	0	0	0	0	0	0	0	0	0	0;
	240	0	0	160	-100	1	209	0	179	-200	0	0	0	0	0	0	0	0	0	0	0;
	241	179	-19.9903185	160	-100	1.02222	209	1	179	-200	0	0	0	0	0	0	0	0	0	0	0;
	244	220	10.136897	100	0	1.11	177.1	1	220	112.5	0	0	0	0	0	0	0	0	0	0	0;
	254	55	20.3836146	20	0	1.10528	78.8	1	55	23	0	0	0	0	0	0	0	0	0	0	0;
	254	50	20.3836146	20	0	1.10528	68.8	1	50	25	0	0	0	0	0	0	0	0	0	0	0;
	254	50	20.3836146	20	0	1.10528	68.8	1	50	25	0	0	0	0	0	0	0	0	0	0	0;
	254	23	20.3836146	20	0	1.10528	27.6	1	23	7	0	0	0	0	0	0	0	0	0	0	0;
	267	2.1	1.00274971	1	0	1.05826	0.7	1	2.1	0.45	0	0	0	0	0	0	0	0	0	0	0;
	268	2.1	1.07850627	1	0	1.07506	0.7	1	2.1	0.45	0	0	0	0	0	0	0	0	0	0	0;
	278	0	0	5	0	1	10.3	0	7.15	5.85	0	0	0	0	0	0	0	0	0	0	0;
	279	0	0	5	0	1	10.3	0	7.15	5.85	0	0	0	0	0	0	0	0	0	0	0;
	295	5	3.88443013	3.75	0	1.09445	5	1	5	1	0	0	0	0	0	0	0	0	0	0	0;
	295	5	3.88443013	3.75	0	1.09445	5	1	5	1	0	0	0	0	0	0	0	0	0	0	0;
	295	5	3.88443013	3.75	0	1.09445	5	1	5	1	0	0	0	0	0	0	0	0	0	0	0;
	295	5	3.88443013	3.75	0	1.09445	5	1	5	1	0	0	0	0	0	0	0	0	0	0	0;
	310	370	190.273403	190	-19	1	426	1	370	240	0	0	0	0	0	0	0	0	0	0	0;
	316	0	0	2	0	1	4	0	5.73	1	0	0	0	0	0	0	0	0	0	0	0;
	316	0	0	2	0	1	4	0	5.73	1	0	0	0	0	0	0	0	0	0	0	0;
	376	6.6	5.3192732	5	0	1.10193	8.4	1	6.6	5.4	0	0	0	0	0	0	0	0	0	0	0;
	379	0.9	1.10732142	1	0	1.11132	0.9	1	0.9	0.3	0	0	0	0	0	0	0	0	0	0	0;
	379	0.9	1.10732142	1	0	1.11132	0.9	1	0.9	0.3	0	0	0	0	0	0	0	0	0	0	0;
	379	0.9	1.10732142	1	0	1.11132	0.9	1	0.9	0.3	0	0	0	0	0	0	0	0	0	0	0;
	383	27	7.18980349	7	0	1.11054	31.3	1	27	11	0	0	0	0	0	0	0	0	0	0	0;
	383	30	7.18980349	7	0	1.11054	39	1	30	11	0	0	0	0	0	0	0	0	0	0	0;
	383	30	6.16268871	6	0	1.11054	40.6	1	30	9	0	0	0	0	0	0	0	0	0	0	0;
	384	55	15.4477093	15	0	1.11743	68.8	1	55	20	0	0	0	0	0	0	0	0	0	0	0;
	384	55	15.4477093	15	0	1.11743	68.8	1	55	20	0	0	0	0	0	0	0	0	0	0	0;
	385	40	6.46135554	15	0	1.11752	48.5	1	40	10	0	0	0	0	0	0	0	0	0	0	0;
	385	55	6.46135554	15	0	1.11752	68.8	1	55	20	0	0	0	0	0	0	0	0	0	0	0;
	387	50	20.4384489	20	0	1.1113	68.8	1	50	25	0	0	0	0	0	0	0	0	0	0	0;
	387	100	20.4384489	20	0	1.1113	147	1	100	55	0	0	0	0	0	0	0	0	0	0	0;
	388	60	40.5875595	40	0	1.11386	68.8	1	60	25	0	0	0	0	0	0	0	0	0	0	0;
	399	2.75	3.30082359	3	0	1.10799	3.8	1	2.75	2	0	0	0	0	0	0	0	0	0	0	0;
	433	1.65	1.0277349	1	0	1.09946	1.9	1	1.65	1.35	0	0	0	0	0	0	0	0	0	0	0;
	455	51.5	8.74082937	57	-22	1.11245	68.8	1	51.5	15	0	0	0	0	0	0	0	0	0	0	0;
	456	55	8.56741618	57	-22	1.11895	68.8	1	55	15	0	0	0	0	0	0	0	0	0	0	0;
	457	55	14.8811219	57	-22	1.11707	68.8	1	55	15	0	0	0	0	0	0	0	0	0	0	0;
	457	77	18.2181148	71	-28	1.11707	87.5	1	77	3	0	0	0	0	0	0	0	0	0	0	0;
	458	55	8.76468929	57	-22	1.11493	68.8	1	55	15	0	0	0	0	0	0	0	0	0	0	0;
	458	55	8.76468929	57	-22	1.11493	68.8	1	55	15	0	0	0	0	0	0	0	0	0	0	0;
	478	120	72.1974167	137	-47	1.11867	235.3	1	226	120	0	0	0	0	0	0	0	0	0	0	0;
	478	12	7.77374457	12	0	1.11867	48.5	1	25	12	0	0	0	0	0	0	0	0	0	0	0;
	479	10	12.3839325	12	0	1.10485	48.5	1	17	10	0	0	0	0	0	0	0	0	0	0	0;
	482	4.4	2.33246766	2	0	1.10618	5.6	1	4.4	3.6	0	0	0	0	0	0	0	0	0	0	0;
	500	0.34	1.10561887	0.2	0	1.09306	0.4	1	0.34	0	0	0	0	0	0	0	0	0	0	0	0;
	522	6.6	4.67709445	4	0	1.10119	8.4	1	6.6	3	0	0	0	0	0	0	0	0	0	0	0;
	527	3.41	3.21570092	3	0	1.11076	4.6	1	3.41	2.79	0	0	0	0	0	0	0	0	0	0	0;
	532	6.5	4.72818445	4.7	3.8	1.10157	6.5	1	6.5	1	0	0	0	0	0	0	0	0	0	0	0;
	532	6.5	4.72818445	4.7	3.8	1.10157	6.5	1	6.5	1	0	0	0	0	0	0	0	0	0	0	0;
	532	6.5	4.72818445	4.7	3.8	1.10157	6.5	1	6.5	1	0	0	0	0	0	0	0	0	0	0	0;
	543	2.97	2.1353111	2	0	1.06077	4.1	1	2.97	2.43	0	0	0	0	0	0	0	0	0	0	0;
	572	0	0	2	0	1	4.6	0	3.52	2.88	0	0	0	0	0	0	0	0	0	0	0;
	597	1.7	0.83913025	0.7	0	1.08723	1.9	1	1.7	1	0	0	0	0	0	0	0	0	0	0	0;
	597	0	0	0.7	0	1	1.9	0	1.7	1	0	0	0	0	0	0	0	0	0	0	0;
	603	4.4	4.19756875	3	0	1.11189	5.6	1	4.4	3	0	0	0	0	0	0	0	0	0	0	0;
	670	52	14.9302875	35	2	1.11956	62.5	1	52	37	0	0	0	0	0	0	0	0	0	0	0;
	670	30	10.2283648	23	2	1.11956	37.5	1	30	10	0	0	0	0	0	0	0	0	0	0	0;
	670	105	36.9543247	85	6	1.11956	150	1	105	50	0	0	0	0	0	0	0	0	0	0	0;
	670	105	36.9543247	85	6	1.11956	150	1	105	50	0	0	0	0	0	0	0	0	0	0	0;
	671	30	10.5901414	23	2	1.12	37.5	1	30	10	0	0	0	0	0	0	0	0	0	0	0;
	671	30	10.5901414	23	2	1.12	37.5	1	30	10	0	0	0	0	0	0	0	0	0	0	0;
	671	30	11.4082501	25	2	1.12	37.5	1	30	10	0	0	0	0	0	0	0	0	0	0	0;
	671	125	38.3152937	85	6	1.12	150	1	125	68	0	0	0	0	0	0	0	0	0	0	0;
	671	105	38.3152937	85	6	1.12	150	1	105	50	0	0	0	0	0	0	0	0	0	0	0;
	692	1.54	1.14291458	0.7	0	1.09872	1.9	1	1.54	1.26	0	0	0	0	0	0	0	0	0	0	0;
	694	1.4	1.221052	1	0	1.08197	3.8	1	1.4	0	0	0	0	0	0	0	0	0	0	0	0;
	700	35	18.2454939	18	2	1.11463	37.5	1	35	9	0	0	0	0	0	0	0	0	0	0	0;
	700	20	30.4296144	30	2	1.11463	37.5	1	20	9	0	0	0	0	0	0	0	0	0	0	0;
	701	35	18.284797	18	2	1.11138	37.5	1	35	9	0	0	0	0	0	0	0	0	0	0	0;
	701	35	18.284797	18	2	1.11138	37.5	1	35	9	0	0	0	0	0	0	0	0	0	0	0;
	701	35	18.284797	18	2	1.11138	37.5	1	35	9	0	0	0	0	0	0	0	0	0	0	0;
	701	97	66.0501891	65	6	1.11138	121.3	1	97	30	0	0	0	0	0	0	0	0	0	0	0;
	702	35	18.1840851	18	2	1.11468	37.5	1	35	9	0	0	0	0	0	0	0	0	0	0	0;
	702	30	18.1840851	18	2	1.11468	37.5	1	30	9	0	0	0	0	0	0	0	0	0	0	0;
	702	28	14.1380638	14	2	1.11468	31.5	1	28	9	0	0	0	0	0	0	0	0	0	0	0;
	735	8	4.09978447	4	0	1.0952	5.3	1	8	1	0	0	0	0	0	0	0	0	0	0	0;
	735	2	2.04989223	2	0	1.0952	2	1	2	1	0	0	0	0	0	0	0	0	0	0	0;
	752	4.4	0.458267836	4.5	0.2	1.09731	5.8	1	4.4	3.6	0	0	0	0	0	0	0	0	0	0	0;
	766	2.7	0.220889623	0	0	1.09745	5.8	1	2.7	0	0	0	0	0	0	0	0	0	0	0	0;
	775	4.9	0.146773648	0	0	1.09432	4	1	4.9	0	0	0	0	0	0	0	0	0	0	0	0;
	798	93	14.8575462	30	0	1.11549	65	1	93	0	0	0	0	0	0	0	0	0	0	0	0;
	798	35.9	14.8575462	30	0	1.11549	65	1	35.9	0	0	0	0	0	0	0	0	0	0	0	0;
	801	0	0	0	0	1	12.4	0	2.5	0	0	0	0	0	0	0	0	0	0	0	0;
	808	6	0.0163475942	0	0	1.09831	4.7	1	6	0	0	0	0	0	0	0	0	0	0	0	0;
	809	6	0.0873827451	0	0	1.09858	5.8	1	6	0	0	0	0	0	0	0	0	0	0	0	0;
	846	130	38.1863955	149	-33	1.12	235	1	225	130	0	0	0	0	0	0	0	0	0	0	0;
	847	180.38	77.421387	149	-33	1.12	235	1	225	110	0	0	0	0	0	0	0	0	0	0	0;
	854	2.5	0.0767242196	0	0	1.07804	3	1	2.5	0	0	0	0	0	0	0	0	0	0	0	0;
	860	12	0.25988296	0	0	1.09667	12.4	1	12	0	0	0	0	0	0	0	0	0	0	0	0;
	870	170	30.1618039	30	0	1.11642	167.6	1	170	66	0	0	0	0	0	0	0	0	0	0	0;
	870	61	30.1618039	30	0	1.11642	71.6	1	61	34	0	0	0	0	0	0	0	0	0	0	0;
	876	21	0.216891525	0	0	1.10874	8.3	1	21	0	0	0	0	0	0	0	0	0	0	0	0;
	890	7	0.17101832	0	0	1.1085	5.6	1	7	0	0	0	0	0	0	0	0	0	0	0	0;
	893	0	0	0	0	1	3	0	10	0	0	0	0	0	0	0	0	0	0	0	0;
	908	30.4	0.178962379	0	0	1.10489	3	1	30.4	0	0	0	0	0	0	0	0	0	0	0	0;
	913	2	0.2325071	0	0	1.06654	0	1	2	0	0	0	0	0	0	0	0	0	0	0	0;
	918	0	0	0	0	1	1	0	1.9	0	0	0	0	0	0	0	0	0	0	0	0;
	929	0	0	0	0	1	2.1	0	2.02	1.34	0	0	0	0	0	0	0	0	0	0	0;
	934	129	28.9252178	105	-11	1.11698	235	1	225	129	0	0	0	0	0	0	0	0	0	0	0;
	936	36	15.9795166	30	0	1.09445	36.8	1	36	0	0	0	0	0	0	0	0	0	0	0	0;
	939	0	0	0	0	1	2.8	0	2.68	1.78	0	0	0	0	0	0	0	0	0	0	0;
	959	101	25.7338955	30	0	1.10735	100.8	1	101	49	0	0	0	0	0	0	0	0	0	0	0;
	965	0	0	0	0	1	1.7	0	12	0	0	0	0	0	0	0	0	0	0	0	0;
	980	12	19.7769176	30	0	1.09905	9.5	1	12	0	0	0	0	0	0	0	0	0	0	0	0;
	982	0	0	0	0	1	1.6	0	1.6	0.91	0	0	0	0	0	0	0	0	0	0	0;
	984	6	0.150879451	0	0	1.1072	5.9	1	6	1	0	0	0	0	0	0	0	0	0	0	0;
	989	8.3	0.0486606095	0	0	1.09313	10.9	1	8.3	0	0	0	0	0	0	0	0	0	0	0	0;
	993	68	9.74382746	23	0	1.10184	52	1	68	5	0	0	0	0	0	0	0	0	0	0	0;
	993	0	0	23	0	1	52	0	68	5	0	0	0	0	0	0	0	0	0	0	0;
	993	0	0	11	0	1	24.5	0	31	-32	0	0	0	0	0	0	0	0	0	0	0;
	993	0	0	10	0	1	24.5	0	31	-32	0	0	0	0	0	0	0	0	0	0	0;
	1008	0	0	10	0	1	69	0	50	0	0	0	0	0	0	0	0	0	0	0	0;
	1008	92	41.2166991	74	-15	1.11496	57.6	1	125	92	0	0	0	0	0	0	0	0	0	0	0;
	1009	84	55.0393368	74	-15	1.10191	57.6	1	125	84	0	0	0	0	0	0	0	0	0	0	0;
	1009	0	0	10	0	1	40	0	30	0	0	0	0	0	0	0	0	0	0	0	0;
	1021	2.5	0.0750310319	0	0	1.10219	3.3	1	2.5	0	0	0	0	0	0	0	0	0	0	0	0;
	1049	3.35	0.581530884	0	0	1.08347	3.8	1	3.35	2.23	0	0	0	0	0	0	0	0	0	0	0;
...
];

%% branch data
%	fbus	tbus	r	x	b	rateA	rateB	rateC	ratio	angle	status	angmin	angmax	Pf	Qf	Pt	Qt
mpc.branch = [
	9	11	0.00064	0.0305	0	400	400	400	1.10224	0	1	-360	360	-303.2623	-96.2787	303.9242	127.8220;
	13	12	0.00069	0.03946	0	250	250	250	0.9999	0	1	-360	360	-204.4057	-23.6155	204.6911	39.9407;
	21	19	0.00088	0.05709	0	330	330	330	0.9999	0	1	-360	360	-313.7203	24.0335	314.5544	30.0749;
	36	35	0.0007	0.03652	0	250	250	250	0.9999	0	1	-360	360	-158.2640	-20.5398	158.4399	29.7159;
	37	40	0.00036	0.02519	0	500	500	500	1.0686	0	1	-360	360	38.1514	-36.4445	-38.1421	37.0944;
	38	41	0.00036	0.02519	0	500	500	500	1.08671	0	1	-360	360	115.0894	-105.5866	-115.0052	111.4763;
	55	56	0.00034	0.02097	0	500	500	500	1.0755	0	1	-360	360	14.3635	-66.8944	-14.3483	67.8337;
	59	61	0.00034	0.02097	0	500	500	500	1.05955	0	1	-360	360	-171.1056	-45.0146	171.2041	51.0860;
	70	72	0.00081	0.03	0	400	400	400	1.0876	0	1	-360	360	20.4630	-82.5000	-20.4066	84.5870;
	107	109	0.00075	0.02445	-0.00832	330	330	330	1.06467	0	1	-360	360	-109.7005	-36.4778	109.7945	40.4419;
	108	110	0.0004	0.0253	0	500	500	500	1.07013	0	1	-360	360	-105.6997	-58.5303	105.7550	62.0239;
	144	147	0.00053	0.02875	-0.016	400	400	400	1.07702	0	1	-360	360	209.8818	-29.8931	-209.6573	43.7876;
	173	174	0.00064	0.0305	0	400	400	400	1.06172	0	1	-360	360	-174.4137	20.8372	174.5963	-12.1351;
	182	183	0.00023	0.023	0	500	500	500	1.07426	0	1	-360	360	-53.3697	-71.6385	53.3869	73.3577;
	181	184	0.00023	0.023	0	500	500	500	1.07426	0	1	-360	360	-55.1061	-71.4556	55.1237	73.2098;
	188	187	0.00032	0.04392	0	330	330	330	0.9999	0	1	-360	360	-228.5546	-51.3080	228.7379	76.4560;
	191	193	0.0003	0.02732	0	500	500	500	1.10871	0	1	-360	360	-425.1608	-169.9406	425.8200	229.9684;
	198	200	0.00035	0.02375	0	500	500	500	1.07313	0	1	-360	360	113.4485	-117.5272	-113.3452	124.5369;
	212	213	0.00051	0.0275	0	400	400	400	1.10394	0	1	-360	360	-72.7354	-95.1427	72.8078	99.0443;
	217	215	0.00084	0.06858	0	250	250	250	0.9999	0	1	-360	360	-141.4327	17.9507	141.5937	-4.8025;
	220	222	0.00033	0.02711	0	500	500	500	1.08613	0	1	-360	360	-170.0026	-117.7441	170.1523	130.0398;
	224	222	0.00032	0.0464	0	330	330	330	0.9999	0	1	-360	360	-221.6633	64.8040	221.8245	-41.4371;
	231	229	0.00113	0.05647	0	330	330	330	0.9999	0	1	-360	360	-110.4877	48.1176	110.6366	-40.6786;
	228	230	0.00075	0.02469	-0.008	330	330	330	1.04544	0	1	-360	360	-17.8891	-51.5295	17.9111	53.0872;
	3010	183	0.00029	0.00317	0.09184	1386	1386	1386	0	0	1	-360	360	-0.4860	14.8557	0.4871	-24.9638;
	3010	184	0.0003	0.00326	0.09536	1386	1386	1386	0	0	1	-360	360	0.4860	15.0689	-0.4849	-25.5638;
	244	84	0.01475	0.08595	0.13036	415	415	415	0	0	1	-360	360	220.0000	10.1369	-214.1663	8.2256;
	3007	92	0.01244	0.06959	0.1181	412	412	412	0	0	1	-360	360	-79.0650	31.3137	79.8751	-40.5995;
	3007	122	0.01207	0.06905	0.11519	412	412	412	0	0	1	-360	360	-167.2250	-3.1398	170.0742	5.5168;
	146	3008	0.00168	0.01604	0.51488	1206	1206	1206	0	0	1	-360	360	609.5265	-15.6733	-603.7500	15.5677;
	3011	172	0.0018	0.01616	0.0484	457	457	457	0	0	1	-360	360	-0.0447	37.2072	0.0683	-42.9274;
	3011	173	0.0018	0.01616	0.0484	457	457	457	0	0	1	-360	360	0.0447	37.6004	-0.0207	-43.3161;
	3012	63	0.00223	0.02209	0.69011	831	831	831	0	0	1	-360	360	-294.8047	-66.4940	296.6497	10.4805;
	3012	64	0.00223	0.02209	0.69011	831	831	831	0	0	1	-360	360	-294.7053	-66.5004	296.5490	10.4750;
	99	3006	0.00293	0.03054	0.95472	1206	1206	1206	0	0	1	-360	360	358.7714	-53.1081	-355.3500	-16.0043;
	58	30	0.01174	0.07014	0.12689	415	415	415	0	0	1	-360	360	224.2133	61.9648	-218.8814	-44.7029;
	37	107	0.00919	0.06614	0.10451	461	461	461	0	0	1	-360	360	118.9919	-2.9010	-117.9349	-2.2563;
	38	108	0.00822	0.05767	0.0982	465	465	465	0	0	1	-360	360	175.5935	-5.1166	-173.5364	7.5549;
	169	42	0.01698	0.12459	0.1957	373	373	373	0	0	1	-360	360	37.3510	26.7787	-36.9361	-45.5838;
	155	48	0.01298	0.06738	0.10284	335	335	335	0	0	1	-360	360	-108.9026	65.6037	110.7647	-67.8079;
	154	27	0.01068	0.0475	0.09495	415	415	415	0	0	1	-360	360	-303.0729	92.6025	312.2205	-63.1305;
	191	28	0.01436	0.10729	0.16081	373	373	373	0	0	1	-360	360	53.6146	28.0145	-53.0910	-42.2274;
	55	126	0.01488	0.08161	0.1148	347	347	347	0	0	1	-360	360	-129.4491	27.4460	131.6574	-29.1695;
	54	108	0.01116	0.07171	0.10367	362	362	362	0	0	1	-360	360	-174.1787	29.0480	177.0951	-22.8488;
	207	100	0.00552	0.05948	0.17077	427	427	427	0	0	1	-360	360	-204.9531	12.7334	207.0598	-9.1342;
	238	192	0.01118	0.06597	0.10778	362	362	362	0	0	1	-360	360	-257.7277	-21.8538	264.7260	51.0910;
	226	191	0.01682	0.08909	0.12993	400	400	400	0	0	1	-360	360	-186.5298	4.8857	191.8451	8.4657;
	225	192	0.01384	0.08702	0.13484	400	400	400	0	0	1	-360	360	-191.3424	-0.5014	195.9316	13.9996;
	242	195	0.01517	0.09938	0.14492	274	274	274	0	0	1	-360	360	42.2680	44.4154	-41.6618	-56.1689;
	59	16	0.01347	0.07316	0.13418	377	377	377	0	0	1	-360	360	228.1992	53.3760	-222.0002	-35.1483;
	233	25	0.01403	0.10413	0.15949	373	373	373	0	0	1	-360	360	-103.0231	-24.5104	104.3975	16.4545;
	117	70	0.00374	0.0438	0.10096	476	476	476	0	0	1	-360	360	30.8593	-42.9382	-30.7871	31.5339;
	190	99	0.00194	0.02007	0.54307	1316	1316	1316	0	0	1	-360	360	-653.4784	-75.7771	661.4778	100.3321;
	60	12	0.0015	0.01506	0.4032	1386	1386	1386	0	0	1	-360	360	610.0446	113.9479	-604.7289	-103.9997;
	214	174	0.00296	0.03484	0.9296	1358	1358	1358	0	0	1	-360	360	-25.5379	-59.3302	25.5587	-39.8331;
	138	72	0.00169	0.01931	0.53814	866	866	866	0	0	1	-360	360	-111.0589	5.2521	111.2674	-61.6880;
	41	110	0.00137	0.01569	0.43744	1386	1386	1386	0	0	1	-360	360	215.3946	-11.8669	-214.8135	-29.2828;
	40	141	0.00234	0.02677	0.74653	1386	1386	1386	0	0	1	-360	360	396.7876	-65.5477	-393.4170	22.0086;
	34	222	0.00217	0.02513	0.67098	1386	1386	1386	0	0	1	-360	360	652.8513	7.2704	-643.8721	28.0905;
	138	80	0.00152	0.01739	0.48083	866	866	866	0	0	1	-360	360	17.1670	-41.6204	-17.1597	-11.1876;
	140	80	0.00468	0.05347	1.48883	831	831	831	0	0	1	-360	360	194.7164	-89.9641	-193.1039	-55.7294;
	99	44	0.00355	0.03617	0.95894	1150	1150	1150	0	0	1	-360	360	-133.3382	-36.8791	133.9190	-62.9110;
	109	40	0.00195	0.02103	0.5679	1316	1316	1316	0	0	1	-360	360	-159.5331	-34.3586	159.9893	-22.7866;
	63	139	0.00144	0.01446	0.51213	1386	1386	1386	0	0	1	-360	360	-333.4419	-7.9261	334.9138	-33.3559;
	14	6	0.013	0.09781	0.14013	461	461	461	0	0	1	-360	360	-246.3897	18.1274	253.7273	21.3619;
	43	14	0.00525	0.03847	0.06053	373	373	373	0	0	1	-360	360	-67.0331	-23.1310	67.2743	18.3869;
	33	6	0.00457	0.03351	0.05245	427	427	427	0	0	1	-360	360	202.8667	4.7136	-201.2646	0.9188;
	24	9	0.01469	0.10915	0.16676	427	427	427	0	0	1	-360	360	-127.9114	11.4756	130.0031	-15.6971;
	29	16	0.01262	0.09326	0.14324	373	373	373	0	0	1	-360	360	-41.7812	-4.8018	41.9860	-9.2196;
	37	7	0.00924	0.05052	0.07698	366	366	366	0	0	1	-360	360	278.9771	36.5051	-273.0129	-13.0869;
	24	3	0.01068	0.07936	0.12155	274	274	274	0	0	1	-360	360	145.0232	8.7780	-143.0982	-8.5568;
	37	27	0.00585	0.04027	0.07161	495	495	495	0	0	1	-360	360	298.1639	36.0799	-293.8650	-15.1123;
	39	26	0.00585	0.04027	0.07161	495	495	495	0	0	1	-360	360	352.1568	34.3951	-346.1971	-1.9940;
	15	8	0.00558	0.04147	0.0629	373	373	373	0	0	1	-360	360	-6.6613	-121.6040	7.3801	119.7865;
	46	14	0.00089	0.0063	0.0108	373	373	373	0	0	1	-360	360	-112.0026	-41.7080	112.1199	41.3680;
	31	15	0.00442	0.02374	0.04477	415	415	415	0	0	1	-360	360	36.1578	-12.1462	-36.1008	7.5861;
	47	7	0.00494	0.0269	0.04225	335	335	335	0	0	1	-360	360	-182.3981	-25.0569	183.8837	28.3313;
	26	6	0.00287	0.01671	0.02467	366	366	366	0	0	1	-360	360	128.9737	39.2420	-128.5275	-39.5214;
	37	1	0.0012	0.0089	0.01512	747	747	747	0	0	1	-360	360	87.0693	27.5873	-86.9875	-28.8385;
	39	2	0.0012	0.0089	0.01513	747	747	747	0	0	1	-360	360	71.3080	16.3062	-71.2556	-17.7780;
	38	32	0.00399	0.02901	0.04808	476	476	476	0	0	1	-360	360	321.2114	62.5601	-317.7312	-43.0451;
	34	12	0.00298	0.03445	0.94221	831	831	831	0	0	1	-360	360	-114.9362	-61.2283	115.3213	-32.5728;
	40	34	0.00358	0.04122	1.13382	1386	1386	1386	0	0	1	-360	360	713.3796	50.9259	-696.3576	24.2269;
	20	41	0.00342	0.03928	1.08288	1316	1316	1316	0	0	1	-360	360	-562.2604	-3.6308	572.6147	6.1026;
	11	22	0.00286	0.0335	0.89392	1358	1358	1358	0	0	1	-360	360	227.8390	-28.2910	-226.4171	-48.1248;
	11	20	0.0011	0.01259	0.3496	1358	1358	1358	0	0	1	-360	360	-247.0553	-2.9507	247.6965	-26.5009;
	44	41	0.00076	0.00868	0.24096	1358	1358	1358	0	0	1	-360	360	-367.4423	54.4019	368.4047	-69.9105;
	79	74	0.01054	0.06151	0.09306	316	316	316	0	0	1	-360	360	1.2316	-7.9465	-1.2310	-3.2702;
	76	71	0.00905	0.06723	0.10296	373	373	373	0	0	1	-360	360	-29.7218	-21.4126	29.8057	9.5230;
	83	49	0.0114	0.06587	0.09975	274	274	274	0	0	1	-360	360	35.0267	1.1681	-34.9063	-12.4717;
	66	49	0.0107	0.06628	0.10825	377	377	377	0	0	1	-360	360	-11.9652	-27.9929	12.0217	15.5842;
	74	57	0.00543	0.03733	0.06668	446	446	446	0	0	1	-360	360	-54.2105	-4.7814	54.3427	-2.3805;
	75	59	0.00543	0.03733	0.06668	446	446	446	0	0	1	-360	360	-54.2288	-4.8058	54.3611	-2.3553;
	75	49	0.00657	0.0481	0.0727	419	419	419	0	0	1	-360	360	42.8202	3.2051	-42.7172	-11.1804;
	84	67	0.00302	0.0201	0.03069	415	415	415	0	0	1	-360	360	117.4611	-10.2004	-117.1019	9.0173;
	67	53	0.007	0.05138	0.08084	373	373	373	0	0	1	-360	360	68.5791	-0.1829	-68.2948	-7.0771;
	51	70	0.00329	0.02506	0.0439	427	427	427	0	0	1	-360	360	-108.2303	-8.2192	108.5475	5.2654;
	52	50	0.00789	0.05868	0.08985	373	373	373	0	0	1	-360	360	60.7555	10.6457	-60.4995	-19.5625;
	71	52	0.00558	0.04062	0.06491	446	446	446	0	0	1	-360	360	67.0831	0.5214	-66.8777	-6.9666;
	83	51	0.00452	0.03366	0.05156	446	446	446	0	0	1	-360	360	-62.6453	-3.9485	62.7917	-1.2240;
	83	82	0.00134	0.00996	0.01337	377	377	377	0	0	1	-360	360	27.6186	2.7804	-27.6100	-4.3354;
	78	57	0.00618	0.04353	0.07649	446	446	446	0	0	1	-360	360	-44.4367	-8.7894	44.5389	0.2612;
	79	58	0.00618	0.04353	0.07649	347	347	347	0	0	1	-360	360	-44.5894	-8.6797	44.6923	0.1560;
	78	54	0.01219	0.0637	0.09333	347	347	347	0	0	1	-360	360	-74.8977	6.9191	75.4814	-15.1292;
	77	55	0.00246	0.01826	0.02798	373	373	373	0	0	1	-360	360	-105.5094	-4.6819	105.7373	3.0011;
	62	54	0.00242	0.01531	0.02249	377	377	377	0	0	1	-360	360	-104.5849	-22.7729	104.8153	21.5259;
	65	61	0.0017	0.01977	0.53386	1358	1358	1358	0	0	1	-360	360	-150.9746	-25.9370	151.3277	-28.6912;
	73	69	0.00116	0.013	0.33856	1358	1358	1358	0	0	1	-360	360	53.8351	-42.3796	-53.7981	5.8591;
	56	72	0.00218	0.02536	0.68579	1358	1358	1358	0	0	1	-360	360	14.3483	-67.8337	-14.3246	-6.0101;
	80	73	0.00105	0.01123	0.28195	1386	1386	1386	0	0	1	-360	360	-216.9309	69.7125	217.4484	-95.0635;
	64	81	0.00119	0.01428	0.36666	1386	1386	1386	0	0	1	-360	360	-317.1549	-24.2001	318.2515	-2.8631;
	68	60	0.00184	0.02139	0.5777	1358	1358	1358	0	0	1	-360	360	-109.9741	-41.9703	110.1794	-19.0741;
	113	144	0.00488	0.03362	0.05961	446	446	446	0	0	1	-360	360	-155.8073	-70.8364	157.0105	71.9702;
	91	124	0.01093	0.05919	0.08439	290	290	290	0	0	1	-360	360	-26.1599	-1.2494	26.2220	-8.8064;
	124	111	0.00194	0.01415	0.0223	446	446	446	0	0	1	-360	360	-5.8213	24.1919	5.8322	-26.8527;
	95	150	0.00192	0.01355	0.023	446	446	446	0	0	1	-360	360	28.8212	-3.3188	-28.8082	0.5774;
	150	102	0.00238	0.01667	0.02846	446	446	446	0	0	1	-360	360	29.5154	2.6218	-29.4982	-6.0022;
	123	150	0.00279	0.02017	0.03204	446	446	446	0	0	1	-360	360	0.7072	-0.7471	-0.7072	-3.1992;
	151	149	0.00066	0.00496	0.00758	419	419	419	0	0	1	-360	360	166.2103	52.6701	-166.0437	-52.3296;
	123	151	0.00537	0.04039	0.06005	419	419	419	0	0	1	-360	360	108.1486	15.9262	-107.6220	-19.2865;
	108	151	0.00083	0.00525	0.00868	305	305	305	0	0	1	-360	360	58.6194	32.5311	-58.5883	-33.3836;
	117	137	0.01589	0.0876	0.11682	347	347	347	0	0	1	-360	360	-111.7537	20.5961	113.5110	-24.8814;
	97	130	0.00217	0.01459	0.02575	316	316	316	0	0	1	-360	360	10.7380	7.4883	-10.7344	-10.5527;
	134	118	0.01773	0.11678	0.16361	335	335	335	0	0	1	-360	360	116.6485	-8.8612	-114.6818	1.9786;
	145	90	0.00593	0.04093	0.07215	446	446	446	0	0	1	-360	360	62.1593	-11.2007	-61.9711	3.6145;
	125	107	0.0039	0.02847	0.04498	427	427	427	0	0	1	-360	360	-63.0192	-9.9806	63.1499	5.5097;
	136	95	0.00816	0.04242	0.0612	385	385	385	0	0	1	-360	360	-131.8248	-19.8849	133.0304	18.7280;
	137	94	0.00816	0.04242	0.0612	385	385	385	0	0	1	-360	360	-109.0575	-22.0673	109.8935	18.9970;
	95	92	0.00519	0.03839	0.05875	495	495	495	0	0	1	-360	360	157.6305	80.7844	-156.2838	-77.8343;
	94	89	0.00213	0.01403	0.0226	335	335	335	0	0	1	-360	360	134.2181	50.9801	-133.8585	-51.3672;
	131	94	0.00463	0.02775	0.04612	362	362	362	0	0	1	-360	360	-86.4205	-43.8561	86.7744	40.3796;
	120	88	0.01122	0.07074	0.11571	290	290	290	0	0	1	-360	360	-57.0700	-55.0969	57.6303	45.1259;
	127	135	0.00601	0.04147	0.07364	427	427	427	0	0	1	-360	360	-121.3267	-58.6857	122.2393	56.1789;
	108	85	0.00207	0.01279	0.02055	316	316	316	0	0	1	-360	360	112.8555	41.9174	-112.6059	-42.8470;
	103	107	0.00136	0.0099	0.01586	495	495	495	0	0	1	-360	360	-95.0364	-33.6724	95.1508	32.5919;
	148	104	0.00058	0.00417	0.00684	446	446	446	0	0	1	-360	360	-49.9106	-26.4374	49.9259	25.7268;
	152	92	0.00085	0.00624	0.00954	457	457	457	0	0	1	-360	360	0.0000	-0.0000	0.0000	-1.1017;
	153	93	0.00085	0.00626	0.00948	457	457	457	0	0	1	-360	360	-0.0000	-0.0000	0.0000	-1.0943;
	119	93	0.00159	0.01112	0.01913	492	492	492	0	0	1	-360	360	-76.1207	-120.7842	76.4051	120.5932;
	144	121	0.00314	0.02159	0.03839	446	446	446	0	0	1	-360	360	38.8475	-8.0326	-38.8082	3.5729;
	145	128	0.00455	0.03157	0.05531	373	373	373	0	0	1	-360	360	96.1620	57.1375	-95.6851	-60.5166;
	121	101	0.00145	0.01008	0.01719	373	373	373	0	0	1	-360	360	62.1231	6.8985	-62.0769	-8.6926;
	122	112	0.00384	0.02721	0.04517	373	373	373	0	0	1	-360	360	0.3666	9.9918	-0.3615	-15.5053;
	129	96	0.00777	0.04128	0.06391	316	316	316	0	0	1	-360	360	18.5095	-24.8561	-18.4580	17.5014;
	106	94	0.00446	0.03041	0.04867	290	290	290	0	0	1	-360	360	12.3347	-21.5968	-12.3164	15.7628;
	135	125	0.00589	0.03506	0.05235	362	362	362	0	0	1	-360	360	113.5592	15.8075	-112.9226	-18.3738;
	126	116	0.00316	0.02378	0.03527	373	373	373	0	0	1	-360	360	-122.3268	-6.2172	122.7209	4.9266;
	134	95	0.00184	0.0126	0.0224	373	373	373	0	0	1	-360	360	-178.2394	5.1289	178.7166	-4.6155;
	123	105	0.00171	0.00961	0.01424	335	335	335	0	0	1	-360	360	28.6013	60.6352	-28.5375	-62.0216;
	115	95	0.00341	0.02442	0.03997	427	427	427	0	0	1	-360	360	-134.0833	-23.1821	134.6013	22.0073;
	135	94	0.00184	0.0126	0.02239	373	373	373	0	0	1	-360	360	-98.1557	2.6489	98.3004	-4.4072;
	100	114	0.0057	0.04149	0.06617	446	446	446	0	0	1	-360	360	-129.2179	-36.8912	130.1209	35.8818;
	143	136	0.00459	0.02463	0.03616	347	347	347	0	0	1	-360	360	-92.4114	-55.0231	92.8606	53.1794;
	142	127	0.00215	0.01333	0.02211	335	335	335	0	0	1	-360	360	-42.0724	-15.2231	42.1088	12.8809;
	117	87	0.00079	0.00488	0.00726	137	137	137	0	0	1	-360	360	8.1804	-0.8671	-8.1800	0.0000;
	118	86	0.00079	0.00488	0.00724	137	137	137	0	0	1	-360	360	9.3506	-0.8638	-9.3500	-0.0000;
	110	146	0.00241	0.02782	0.77066	1386	1386	1386	0	0	1	-360	360	158.7969	-38.8257	-158.2384	-38.3225;
	99	147	0.00213	0.02432	0.67744	1386	1386	1386	0	0	1	-360	360	-6.5051	7.1711	6.5442	-80.6789;
	140	132	0.00091	0.0104	0.28989	1358	1358	1358	0	0	1	-360	360	-89.9710	78.0509	90.1109	-108.1483;
	141	139	0.00312	0.03563	0.99107	831	831	831	0	0	1	-360	360	283.3714	-59.9403	-281.0976	-23.1063;
	132	147	0.00092	0.01051	0.29293	1358	1358	1358	0	0	1	-360	360	-168.4445	16.6818	168.6942	-45.5467;
	202	181	0.01039	0.08983	0.11422	461	461	461	0	0	1	-360	360	-272.5494	-51.5460	280.2304	105.0185;
	203	180	0.01039	0.08983	0.11422	461	461	461	0	0	1	-360	360	-272.6016	-51.5350	280.2855	105.0325;
	205	180	0.01455	0.0813	0.13279	362	362	362	0	0	1	-360	360	-132.0303	-39.0070	134.3998	36.5543;
	206	181	0.01455	0.0813	0.13279	362	362	362	0	0	1	-360	360	-132.1346	-38.9602	134.5071	36.5247;
	158	206	0.00519	0.03965	0.05836	427	427	427	0	0	1	-360	360	-110.4408	-10.1236	111.0119	7.9384;
	158	168	0.00083	0.00645	0.00951	427	427	427	0	0	1	-360	360	71.2793	0.5650	-71.2414	-1.3280;
	192	163	0.01105	0.08107	0.12824	446	446	446	0	0	1	-360	360	249.0124	55.6057	-242.7915	-24.2302;
	159	182	0.00597	0.04473	0.06735	427	427	427	0	0	1	-360	360	-182.2273	-44.1529	184.0068	49.4027;
	199	202	0.01736	0.10969	0.16268	305	305	305	0	0	1	-360	360	-130.9872	25.8476	134.0446	-23.4000;
	176	203	0.00938	0.06093	0.08934	415	415	415	0	0	1	-360	360	-174.9193	-3.7248	177.8205	13.5366;
	179	181	0.01246	0.09134	0.14349	476	476	476	0	0	1	-360	360	-301.0567	-1.3738	311.3388	60.0252;
	156	160	0.00514	0.03826	0.05933	305	305	305	0	0	1	-360	360	-93.6670	-37.5853	94.1190	34.1295;
	172	166	0.01062	0.0789	0.12085	427	427	427	0	0	1	-360	360	-54.9371	46.8535	55.4561	-57.3033;
	178	209	0.00769	0.0569	0.08673	373	373	373	0	0	1	-360	360	5.7516	70.5236	-5.3526	-76.7333;
	178	208	0.00225	0.01667	0.02541	286	286	286	0	0	1	-360	360	-183.9855	-95.5126	184.8600	99.1480;
	199	170	0.01851	0.1088	0.14435	335	335	335	0	0	1	-360	360	-201.8813	-9.7804	209.1284	36.4312;
	204	198	0.00236	0.01411	0.02031	229	229	229	0	0	1	-360	360	-103.8911	-54.9545	104.2079	54.7545;
	198	163	0.00355	0.02607	0.04096	446	446	446	0	0	1	-360	360	-84.1755	-11.5694	84.4201	9.0782;
	199	194	0.013	0.07589	0.11484	362	362	362	0	0	1	-360	360	128.0533	-13.2549	-125.9992	13.3647;
	198	177	0.00934	0.0539	0.08683	377	377	377	0	0	1	-360	360	-63.2410	56.3935	63.9326	-61.2180;
	170	154	0.00698	0.0374	0.05463	385	385	385	0	0	1	-360	360	-284.1233	41.3285	289.0641	-21.2835;
	169	155	0.00436	0.03202	0.0503	476	476	476	0	0	1	-360	360	-335.0016	32.6754	339.2364	-7.4941;
	191	170	0.0006	0.00351	0.00555	446	446	446	0	0	1	-360	360	-70.1534	74.5674	70.2073	-74.9020;
	192	169	0.0006	0.00351	0.00555	446	446	446	0	0	1	-360	360	-103.9686	70.3093	104.0495	-70.4858;
	179	166	0.01058	0.07762	0.12203	373	373	373	0	0	1	-360	360	201.1081	-50.7630	-197.0271	66.9922;
	185	172	0.00469	0.03486	0.05338	427	427	427	0	0	1	-360	360	-135.6011	-55.1557	136.4482	55.0813;
	173	164	0.00568	0.04012	0.07033	427	427	427	0	0	1	-360	360	118.0046	55.4760	-117.1893	-58.0834;
	196	164	0.00105	0.00733	0.01258	373	373	373	0	0	1	-360	360	-24.1034	-5.6868	24.1089	4.2665;
	197	185	0.00744	0.05397	0.09307	373	373	373	0	0	1	-360	360	-3.0300	-13.4068	3.0347	2.6137;
	206	157	0.00221	0.01618	0.02541	373	373	373	0	0	1	-360	360	56.5759	-7.4217	-56.5127	5.0104;
	207	205	0.00525	0.03837	0.06052	373	373	373	0	0	1	-360	360	82.0524	-36.3378	-81.6837	32.2387;
	210	202	0.00236	0.01746	0.02676	381	381	381	0	0	1	-360	360	-135.0643	-36.0089	135.5169	36.6182;
	183	161	0.00274	0.02778	0.69846	1150	1150	1150	0	0	1	-360	360	277.3668	46.2363	-275.2742	-99.9707;
	189	162	0.00171	0.01741	0.45456	1150	1150	1150	0	0	1	-360	360	97.4690	-43.2560	-97.3067	-2.5006;
	187	190	0.00136	0.01599	0.41965	1621	1621	1621	0	0	1	-360	360	-228.7379	-76.4560	229.4790	42.0098;
	200	175	0.00373	0.04344	1.172	831	831	831	0	0	1	-360	360	-43.0205	-178.6583	43.6736	67.0501;
	218	225	0.02738	0.14254	0.20047	351	351	351	0	0	1	-360	360	-79.4111	-11.1992	81.0597	-1.7990;
	232	238	0.02709	0.15992	0.26125	274	274	274	0	0	1	-360	360	-46.4080	8.8464	47.0674	-33.3469;
	219	243	0.01909	0.11277	0.16673	274	274	274	0	0	1	-360	360	0.3365	-49.8118	-0.0289	33.3762;
...
];

%%-----  OPF Data  -----%%
%% generator cost data
%	1	startup	shutdown	n	x1	y1	...	xn	yn
%	2	startup	shutdown	n	c(n-1)	...	c0
mpc.gencost = [
	2	0	0	3	0	158.61	0;
	2	0	0	3	0	158.61	0;
	2	0	0	3	0	107.03	0;
	2	0	0	3	0	107.03	0;
	2	0	0	3	0	107.03	0;
	2	0	0	3	0	107.03	0;
	2	0	0	3	0	107.03	0;
	2	0	0	3	0	107.03	0;
	2	0	0	3	0	107.03	0;
	2	0	0	3	0	107.03	0;
	2	0	0	3	0	107.03	0;
	2	0	0	3	0	107.03	0;
	2	0	0	3	0	107.03	0;
	2	0	0	3	0	143.52	0;
	2	0	0	3	0	143.52	0;
	2	0	0	3	0	143.52	0;
	2	0	0	3	0	143.52	0;
	2	0	0	3	0	143.52	0;
	2	0	0	3	0	143.52	0;
	2	0	0	3	0	143.52	0;
	2	0	0	3	0	143.52	0;
	2	0	0	3	0	148.16	0;
	2	0	0	3	0	148.16	0;
	2	0	0	3	0	148.16	0;
	2	0	0	3	0	148.16	0;
	2	0	0	3	0	148.16	0;
	2	0	0	3	0	148.16	0;
	2	0	0	3	0	148.16	0;
	2	0	0	3	0	0	0;
	2	0	0	3	0	134.04	0;
	2	0	0	3	0	134.04	0;
	2	0	0	3	0	134.04	0;
	2	0	0	3	0	134.04	0;
	2	0	0	3	0	134.04	0;
	2	0	0	3	0	126.62	0;
	2	0	0	3	0	126.62	0;
	2	0	0	3	0	0	0;
	2	0	0	3	0	0	0;
	2	0	0	3	0	130.49	0;
	2	0	0	3	0	130.49	0;
	2	0	0	3	0	132.33	0;
	2	0	0	3	0	132.33	0;
	2	0	0	3	0	136.59	0;
	2	0	0	3	0	136.59	0;
	2	0	0	3	0	139.96	0;
	2	0	0	3	0	128.21	0;
	2	0	0	3	0	128.21	0;
	2	0	0	3	0	128.21	0;
	2	0	0	3	0	128.21	0;
	2	0	0	3	0	128.21	0;
	2	0	0	3	0	137.4	0;
	2	0	0	3	0	137.4	0;
	2	0	0	3	0	137.4	0;
	2	0	0	3	0	137.4	0;
	2	0	0	3	0	129.99	0;
	2	0	0	3	0	129.99	0;
	2	0	0	3	0	129.99	0;
	2	0	0	3	0	135.6	0;
	2	0	0	3	0	135.6	0;
	2	0	0	3	0	135.6	0;
	2	0	0	3	0	163.16	0;
	2	0	0	3	0	163.16	0;
	2	0	0	3	0	163.16	0;
	2	0	0	3	0	163.16	0;
	2	0	0	3	0	163.16	0;
	2	0	0	3	0	163.16	0;
	2	0	0	3	0	163.16	0;
	2	0	0	3	0	139.01	0;
	2	0	0	3	0	139.01	0;
	2	0	0	3	0	139.01	0;
	2	0	0	3	0	139.01	0;
	2	0	0	3	0	139.01	0;
	2	0	0	3	0	139.01	0;
	2	0	0	3	0	139.01	0;
	2	0	0	3	0	139.01	0;
	2	0	0	3	0	125.48	0;
	2	0	0	3	0	125.48	0;
	2	0	0	3	0	125.48	0;
	2	0	0	3	0	125.48	0;
	2	0	0	3	0	125.48	0;
	2	0	0	3	0	137.4	0;
	2	0	0	3	0	137.4	0;
	2	0	0	3	0	137.4	0;
	2	0	0	3	0	137.4	0;
	2	0	0	3	0	137.4	0;
	2	0	0	3	0	0	0;
	2	0	0	3	0	0	0;
	2	0	0	3	0	0	0;
	2	0	0	3	0	0	0;
	2	0	0	3	0	0	0;
	2	0	0	3	0	0	0;
	2	0	0	3	0	0	0;
	2	0	0	3	0	0	0;
	2	0	0	3	0	0	0;
	2	0	0	3	0	0	0;
	2	0	0	3	0	0	0;
	2	0	0	3	0	0	0;
	2	0	0	3	0	0	0;
	2	0	0	3	0	107.03	0;
	2	0	0	3	0	0	0;
	2	0	0	3	0	0	0;
	2	0	0	3	0	0	0;
	2	0	0	3	0	0	0;
	2	0	0	3	0	0	0;
	2	0	0	3	0	0	0;
	2	0	0	3	0	0	0;
	2	0	0	3	0	0	0;
	2	0	0	3	0	0	0;
	2	0	0	3	0	0	0;
	2	0	0	3	0	0	0;
	2	0	0	3	0	0	0;
	2	0	0	3	0	0	0;
	2	0	0	3	0	0	0;
	2	0	0	3	0	0	0;
	2	0	0	3	0	0	0;
	2	0	0	3	0	0	0;
	2	0	0	3	0	0	0;
	2	0	0	3	0	0	0;
	2	0	0	3	0	0	0;
	2	0	0	3	0	0	0;
	2	0	0	3	0	0	0;
	2	0	0	3	0	0	0;
	2	0	0	3	0	0	0;
	2	0	0	3	0	158.61	0;
	2	0	0	3	0	158.61	0;
	2	0	0	3	0	158.61	0;
	2	0	0	3	0	0	0;
	2	0	0	3	0	0	0;
	2	0	0	3	0	0	0;
	2	0	0	3	0	0	0;
	2	0	0	3	0	0	0;
	2	0	0	3	0	0	0;
	2	0	0	3	0	0	0;
	2	0	0	3	0	0	0;
	2	0	0	3	0	0	0;
	2	0	0	3	0	0	0;
	2	0	0	3	0	0	0;
	2	0	0	3	0	0	0;
	2	0	0	3	0	0	0;
	2	0	0	3	0	0	0;
	2	0	0	3	0	0	0;
	2	0	0	3	0	0	0;
	2	0	0	3	0	0	0;
	2	0	0	3	0	0	0;
	2	0	0	3	0	0	0;
	2	0	0	3	0	0	0;
	2	0	0	3	0	0	0;
	2	0	0	3	0	0	0;
	2	0	0	3	0	0	0;
	2	0	0	3	0	0	0;
	2	0	0	3	0	0	0;
	2	0	0	3	0	0	0;
	2	0	0	3	0	0	0;
	2	0	0	3	0	0	0;
	2	0	0	3	0	0	0;
	2	0	0	3	0	0	0;
	2	0	0	3	0	0	0;
	2	0	0	3	0	0	0;
	2	0	0	3	0	0	0;
	2	0	0	3	0	0	0;
	2	0	0	3	0	0	0;
	2	0	0	3	0	0	0;
	2	0	0	3	0	0	0;
	2	0	0	3	0	0	0;
	2	0	0	3	0	0	0;
	2	0	0	3	0	0	0;
	2	0	0	3	0	0	0;
	2	0	0	3	0	0	0;
	2	0	0	3	0	143.52	0;
	2	0	0	3	0	143.52	0;
	2	0	0	3	0	0	0;
	2	0	0	3	0	0	0;
	2	0	0	3	0	0	0;
	2	0	0	3	0	0	0;
	2	0	0	3	0	0	0;
	2	0	0	3	0	0	0;
	2	0	0	3	0	0	0;
	2	0	0	3	0	0	0;
	2	0	0	3	0	0	0;
	2	0	0	3	0	0	0;
	2	0	0	3	0	0	0;
	2	0	0	3	0	148.16	0;
	2	0	0	3	0	0	0;
	2	0	0	3	0	0	0;
	2	0	0	3	0	0	0;
	2	0	0	3	0	0	0;
	2	0	0	3	0	0	0;
	2	0	0	3	0	0	0;
	2	0	0	3	0	0	0;
	2	0	0	3	0	0	0;
	2	0	0	3	0	0	0;
	2	0	0	3	0	0	0;
	2	0	0	3	0	0	0;
	2	0	0	3	0	0	0;
	2	0	0	3	0	157	0;
	2	0	0	3	0	157	0;
	2	0	0	3	0	157	0;
	2	0	0	3	0	157	0;
	2	0	0	3	0	0	0;
	2	0	0	3	0	0	0;
...
];
